20
comment...
Mg     4.26313234380     0.34604735896     1.58982185410
Si    -0.00000000000     2.31270702190    -0.00000000000
 O     0.50238512299     2.15745520340     1.58982185410
 O     2.98874761480     1.41724978410     0.36380942063
Mg     2.08058276460     1.96665966300     4.76946556220
Si     2.18254957920    -0.00000000000    -0.00000000000
 O     2.68493470220     0.15525181855     4.76946556220
 O     0.80619803563     0.89545723779     5.99547799560
Mg     0.10196681464     4.27936668490     4.76946556220
Si    -0.00000000000     2.31270702190     3.17964370810
 O     3.86271403540     2.46795884050     4.76946556220
 O     1.37635154360     3.20816425970     3.54345312880
Mg     2.28451639390     2.65875438090     1.58982185410
Si     2.18254957920    -0.00000000000     3.17964370810
 O     1.68016445620     4.47016222530     1.58982185410
 O     3.55890112280     3.72995680610     2.81583428750
 O     1.37635154360     3.20816425970     5.99547799560
 O     3.55890112280     3.72995680610     0.36380942063
 O     2.98874761480     1.41724978410     2.81583428750
 O     0.80619803563     0.89545723779     3.54345312880
